sectionalized/no_load/100pc/TNB_DUMA_VLN.Txt

SYMMETRICAL COMPONENT VOLTAGES BY BUS (for 3-phase buses)

Bus               Mag:   V1 (kV)    p.u.     V2 (kV)   %V2/V1    V0 (kV)    %V0/V1

ppu_duma_33kv        18.94     0.9942  8.871E-009  4.683E-008 1.239E-009 6.543E-009
ppu_duma_11kv_a      6.251     0.9843  3.248E-009  5.195E-008 7.351E-011 1.176E-009
ppu_duma_11kv_b      6.119     0.9635  3.154E-009  5.155E-008 1.955E-009 3.195E-008
rpplngi2             6.279     0.9888  3.212E-009  5.115E-008 1.996E-009 3.178E-008
pdtjlnmasjid         6.401      1.008  3.256E-009  5.086E-008 2.026E-009 3.166E-008
bella                6.482      1.021  3.285E-009  5.068E-008 2.047E-009 3.158E-008
pstpdgn              6.523      1.027   3.3E-009  5.059E-008 2.057E-009 3.154E-008
atria_1              6.339     0.9981  3.234E-009  5.102E-008 2.009E-009 3.17E-008
hawker               6.376      1.004  3.237E-009  5.076E-008 1.997E-009 3.132E-008
duma7                6.178     0.9728  3.084E-009  4.993E-008 2.018E-009 3.267E-008
haus                 6.296     0.9914  2.891E-009  4.592E-008 1.068E-008 1.696E-007
duma6                6.616      1.042  2.232E-009  3.374E-008 4.656E-008 7.038E-007
duma13               6.903      1.087  1.686E-009  2.442E-008 8.519E-008 1.234E-006
ssu_duma5_im2        6.942      1.093  1.678E-009  2.417E-008 8.568E-008 1.234E-006
pdtlitrak            6.494      1.022  3.291E-009  5.068E-008  2.1E-009 3.234E-008
duma12               6.648      1.047  3.349E-009  5.038E-008 2.162E-009 3.253E-008
tmngh4               6.794       1.07  3.414E-009  5.026E-008 2.84E-009 4.181E-008
ssu_tmegah3_ir1      6.852      1.079  3.441E-009  5.022E-008 3.123E-009 4.558E-008
tmngh2               6.877      1.083  3.452E-009  5.02E-008 3.248E-009 4.723E-008
ssu_uptwres_im2      6.182     0.9734  3.176E-009  5.138E-008 2.154E-009 3.485E-008
maybank              6.266     0.9867  3.207E-009  5.118E-008 2.177E-009 3.474E-008
duma8                6.282     0.9892  3.213E-009  5.115E-008 2.224E-009 3.54E-008
duma9                6.393      1.007  3.253E-009  5.088E-008 2.026E-009 3.169E-008
duma1                6.506      1.024  3.294E-009  5.062E-008 2.055E-009 3.158E-008
elite                6.547      1.031  3.309E-009  5.054E-008 2.065E-009 3.154E-008
pamdra               6.268      0.987  3.255E-009  5.193E-008 7.376E-011 1.177E-009
duma4                6.324     0.9957  3.282E-009  5.189E-008 9.494E-011 1.501E-009
plsdra               6.447      1.015  3.34E-009  5.181E-008 1.715E-010 2.659E-009
prmte                6.398      1.007  3.317E-009  5.184E-008 1.537E-010 2.403E-009
prmta                6.423      1.011  3.329E-009  5.183E-008 1.555E-010 2.421E-009
pmontb               6.443      1.014  3.338E-009  5.181E-008 1.691E-010 2.625E-009
plngi_b              6.335     0.9974  3.285E-009  5.185E-008 7.505E-011 1.185E-009
plngi_d              6.376      1.004  3.303E-009  5.181E-008 7.604E-011 1.193E-009
sprk9                6.603       1.04  3.408E-009  5.16E-008 8.542E-011 1.294E-009
bomba                6.623      1.043  3.417E-009  5.159E-008 9.355E-011 1.412E-009
sprk8                6.673      1.051  3.44E-009  5.154E-008 1.209E-010 1.811E-009
ssu_dsarcntr_ir1     6.294      0.991  3.266E-009  5.19E-008 7.416E-011 1.178E-009
duma10               6.447      1.015  3.335E-009  5.173E-008 7.84E-011 1.216E-009
balaipolis           6.449      1.015  3.336E-009  5.173E-008 7.846E-011 1.217E-009
ssu_uptwres_ir1      6.468      1.018  3.35E-009  5.18E-008 1.729E-010 2.673E-009
ppu_duma_vcb1            0          0          0          0         0         0
